Circuit: * D:\Documents\GITHUB_PRIVATE_CODES\EE464_2022-2023_TermProject\simulations\spice\astable555\555vibrator_10k_20k.asc

Direct Newton iteration for .op point succeeded.

Date: Sat Feb 04 15:59:51 2023
Total elapsed time: 0.058 seconds.

tnom = 27
temp = 27
method = modified trap
totiter = 5099
traniter = 5091
tranpoints = 1651
accept = 1506
rejected = 145
matrix size = 14
fillins = 0
solver = Normal
Matrix Compiler1: 384 bytes object code size  0.1/0.0/[0.0]
Matrix Compiler2: 776 bytes object code size  0.1/0.1/[0.0]

