Circuit: * D:\Documents\GITHUB_PRIVATE_CODES\EE464_2022-2023_TermProject\simulations\spice\astable555_withMosfet\555vibrator_10k_20k_withMos.asc

Direct Newton iteration for .op point succeeded.

Date: Sat Feb 04 19:33:15 2023
Total elapsed time: 0.166 seconds.

tnom = 27
temp = 27
method = modified trap
totiter = 32486
traniter = 32469
tranpoints = 10065
accept = 7513
rejected = 2552
matrix size = 22
fillins = 0
solver = Normal
Matrix Compiler1: 712 bytes object code size  0.1/0.1/[0.1]
Matrix Compiler2: 1.36 KB object code size  0.1/0.1/[0.1]

