Circuit: * D:\Documents\GITHUB_PRIVATE_CODES\EE464_2022-2023_TermProject\simulations\spice\astable555_withMosfet\555vibrator_10k_20k_withMosExperimental.asc

WARNING: Node N005 is floating.

Direct Newton iteration for .op point succeeded.

Date: Sun Feb 05 17:07:20 2023
Total elapsed time: 0.108 seconds.

tnom = 27
temp = 27
method = modified trap
totiter = 15054
traniter = 15037
tranpoints = 3713
accept = 3019
rejected = 694
matrix size = 23
fillins = 0
solver = Normal
Matrix Compiler1: 762 bytes object code size  0.1/0.1/[0.1]
Matrix Compiler2: 1.43 KB object code size  0.1/0.2/[0.1]

